[TITLE]


[JUNCTIONS]
;ID              	Elev        	Demand      	Pattern
 1               	0           	1           	                	;
 2               	0           	1           	                	;
 3               	0           	1           	                	;
 4               	0           	1           	                	;
 5               	0           	1           	                	;
 6               	0           	1           	                	;
 7               	0           	1           	                	;
 8               	0           	1           	                	;
 9               	0           	1           	                	;
 10              	0           	1           	                	;
 11              	0           	1           	                	;
 12              	0           	1           	                	;
 13              	0           	1           	                	;
 14              	0           	1           	                	;
 15              	0           	1           	                	;
 16              	0           	1           	                	;
 17              	0           	0           	                	;
 18              	0           	0           	                	;
 19              	0           	0           	                	;
 20              	0           	0           	                	;
 21              	0           	0           	                	;
 22              	0           	0           	                	;
 23              	0           	0           	                	;
 24              	0           	0           	                	;
 25              	0           	0           	                	;
 26              	0           	0           	                	;
 27              	0           	0           	                	;
 28              	0           	0           	                	;
 29              	0           	0           	                	;
 30              	0           	0           	                	;
 31              	0           	0           	                	;
 32              	0           	0           	                	;
 33              	0           	0           	                	;
 34              	0           	0           	                	;
 35              	0           	0           	                	;
 36              	0           	0           	                	;
 37              	0           	0           	                	;
 38              	0           	0           	                	;
 39              	0           	0           	                	;
 40              	0           	0           	                	;
 41              	0           	0           	                	;
 42              	0           	0           	                	;
 43              	0           	0           	                	;
 44              	0           	0           	                	;
 45              	0           	0           	                	;
 46              	0           	0           	                	;
 47              	0           	0           	                	;
 48              	0           	0           	                	;
 49              	0           	0           	                	;
 50              	0           	0           	                	;
 51              	0           	0           	                	;
 52              	0           	0           	                	;
 53              	0           	0           	                	;
 54              	0           	0           	                	;
 55              	0           	0           	                	;
 56              	0           	0           	                	;
 57              	0           	0           	                	;
 58              	0           	0           	                	;
 59              	0           	0           	                	;
 60              	0           	0           	                	;
 61              	0           	0           	                	;
 62              	0           	0           	                	;
 63              	0           	0           	                	;
 64              	0           	0           	                	;
 65              	0           	0           	                	;
 66              	0           	0           	                	;
 67              	0           	0           	                	;
 68              	0           	0           	                	;
 69              	0           	0           	                	;
 70              	0           	0           	                	;
 73              	0           	0           	                	;
 74              	0           	0           	                	;
 75              	0           	0           	                	;
 76              	0           	0           	                	;
 77              	0           	0           	                	;
 78              	0           	0           	                	;
 79              	0           	0           	                	;
 80              	0           	0           	                	;
 81              	0           	0           	                	;
 82              	0           	0           	                	;
 83              	0           	0           	                	;
 84              	0           	0           	                	;
 85              	0           	0           	                	;
 86              	0           	0           	                	;
 87              	0           	0           	                	;
 88              	0           	0           	                	;
 89              	0           	0           	                	;
 90              	0           	0           	                	;
 91              	0           	0           	                	;
 92              	0           	0           	                	;
 93              	0           	0           	                	;
 94              	0           	0           	                	;
 95              	0           	0           	                	;

[RESERVOIRS]
;ID              	Head        	Pattern
 71              	121         	                	;

[TANKS]
;ID              	Elevation   	InitLevel   	MinLevel    	MaxLevel    	Diameter    	MinVol      	VolCurve        	Overflow

[PIPES]
;ID              	Node1           	Node2           	Length      	Diameter    	Roughness   	MinorLoss   	Status
 9               	10              	11              	1000        	50          	100         	0           	Open  	;
 10              	13              	10              	1000        	50          	100         	0           	Open  	;
 11              	11              	12              	1000        	50          	100         	0           	Open  	;
 15              	12              	17              	1000        	50          	100         	0           	Open  	;
 18              	17              	20              	1000        	50          	100         	0           	Open  	;
 20              	20              	21              	1000        	50          	100         	0           	Open  	;
 23              	21              	23              	1000        	50          	100         	0           	Open  	;
 26              	23              	24              	1000        	50          	100         	0           	Open  	;
 28              	24              	29              	1000        	50          	100         	0           	Open  	;
 30              	29              	31              	1000        	50          	100         	0           	Open  	;
 31              	31              	32              	1000        	50          	100         	0           	Open  	;
 36              	13              	37              	1000        	50          	100         	0           	Open  	;
 39              	37              	40              	1000        	50          	100         	0           	Open  	;
 40              	40              	41              	1000        	50          	100         	0           	Open  	;
 41              	41              	42              	1000        	50          	100         	0           	Open  	;
 46              	17              	19              	1000        	50          	100         	0           	Open  	;
 48              	41              	45              	1000        	50          	100         	0           	Open  	;
 49              	12              	48              	1000        	50          	100         	0           	Open  	;
 56              	23              	54              	1000        	50          	100         	0           	Open  	;
 57              	24              	55              	1000        	50          	100         	0           	Open  	;
 58              	55              	56              	1000        	50          	100         	0           	Open  	;
 59              	29              	57              	1000        	50          	100         	0           	Open  	;
 61              	5               	59              	1000        	50          	100         	0           	Open  	;
 62              	1               	5               	1000        	50          	100         	0           	Open  	;
 63              	5               	11              	1000        	50          	100         	0           	Open  	;
 64              	48              	49              	1000        	50          	100         	0           	Open  	;
 65              	21              	53              	1000        	50          	100         	0           	Open  	;
 66              	13              	60              	1000        	50          	100         	0           	Open  	;
 67              	60              	50              	1000        	50          	100         	0           	Open  	;
 68              	60              	51              	1000        	50          	100         	0           	Open  	;
 69              	37              	52              	1000        	50          	100         	0           	Open  	;
 70              	42              	44              	1000        	50          	100         	0           	Open  	;
 71              	40              	62              	1000        	50          	100         	0           	Open  	;
 72              	62              	61              	1000        	50          	100         	0           	Open  	;
 73              	61              	46              	1000        	50          	100         	0           	Open  	;
 74              	46              	58              	1000        	50          	100         	0           	Open  	;
 75              	58              	31              	1000        	50          	100         	0           	Open  	;
 76              	58              	65              	1000        	50          	100         	0           	Open  	;
 77              	65              	63              	1000        	50          	100         	0           	Open  	;
 78              	65              	64              	1000        	50          	100         	0           	Open  	;
 80              	66              	67              	1000        	50          	100         	0           	Open  	;
 81              	62              	68              	1000        	50          	100         	0           	Open  	;
 82              	68              	66              	1000        	50          	100         	0           	Open  	;
 83              	68              	69              	1000        	50          	100         	0           	Open  	;
 84              	66              	69              	1000        	50          	100         	0           	Open  	;
 85              	69              	70              	1000        	50          	100         	0           	Open  	;
 86              	66              	70              	1000        	50          	100         	0           	Open  	;
 90              	77              	73              	1000        	50          	100         	0           	Open  	;
 91              	77              	74              	1000        	50          	100         	0           	Open  	;
 92              	74              	75              	1000        	50          	100         	0           	Open  	;
 93              	75              	76              	1000        	50          	100         	0           	Open  	;
 94              	75              	78              	1000        	50          	100         	0           	Open  	;
 95              	78              	79              	1000        	50          	100         	0           	Open  	;
 96              	79              	80              	1000        	50          	100         	0           	Open  	;
 97              	79              	81              	1000        	50          	100         	0           	Open  	;
 98              	32              	85              	1000        	50          	100         	0           	Open  	;
 99              	85              	82              	1000        	50          	100         	0           	Open  	;
 100             	85              	86              	1000        	50          	100         	0           	Open  	;
 101             	86              	83              	1000        	50          	100         	0           	Open  	;
 102             	86              	87              	1000        	50          	100         	0           	Open  	;
 103             	87              	84              	1000        	50          	100         	0           	Open  	;
 105             	88              	87              	1000        	50          	100         	0           	Open  	;
 106             	74              	88              	1000        	50          	100         	0           	Open  	;
 107             	88              	78              	1000        	50          	100         	0           	Open  	;
 108             	32              	92              	1000        	50          	100         	0           	Open  	;
 109             	92              	91              	1000        	50          	100         	0           	Open  	;
 110             	91              	90              	1000        	50          	100         	0           	Open  	;
 111             	90              	89              	1000        	50          	100         	0           	Open  	;
 112             	20              	92              	1000        	50          	100         	0           	Open  	;
 113             	89              	88              	1000        	50          	100         	0           	Open  	;
 1               	70              	2               	1000        	50          	100         	0           	Open  	;
 2               	2               	3               	1000        	50          	100         	0           	Open  	;
 3               	3               	4               	1000        	50          	100         	0           	Open  	;
 4               	3               	6               	1000        	50          	100         	0           	Open  	;
 5               	2               	7               	1000        	50          	100         	0           	Open  	;
 6               	7               	8               	1000        	50          	100         	0           	Open  	;
 7               	8               	9               	1000        	50          	100         	0           	Open  	;
 8               	6               	9               	1000        	50          	100         	0           	Open  	;
 12              	7               	14              	1000        	50          	100         	0           	Open  	;
 14              	15              	16              	1000        	50          	100         	0           	Open  	;
 16              	16              	18              	1000        	50          	100         	0           	Open  	;
 17              	18              	9               	1000        	50          	100         	0           	Open  	;
 19              	14              	15              	1000        	50          	100         	0           	Open  	;
 21              	14              	22              	1000        	50          	100         	0           	Open  	;
 22              	22              	25              	1000        	50          	100         	0           	Open  	;
 24              	25              	26              	1000        	50          	100         	0           	Open  	;
 25              	22              	27              	1000        	50          	100         	0           	Open  	;
 27              	26              	27              	1000        	50          	100         	0           	Open  	;
 29              	27              	28              	1000        	50          	100         	0           	Open  	;
 32              	28              	30              	1000        	50          	100         	0           	Open  	;
 34              	33              	34              	1000        	50          	100         	0           	Open  	;
 35              	33              	35              	1000        	50          	100         	0           	Open  	;
 37              	35              	26              	1000        	50          	100         	0           	Open  	;
 38              	35              	36              	1000        	50          	100         	0           	Open  	;
 42              	36              	38              	1000        	50          	100         	0           	Open  	;
 43              	38              	39              	1000        	50          	100         	0           	Open  	;
 44              	38              	47              	1000        	50          	100         	0           	Open  	;
 45              	47              	43              	1000        	50          	100         	0           	Open  	;
 47              	43              	39              	1000        	50          	100         	0           	Open  	;
 52              	70              	77              	1000        	50          	100         	0           	Open  	;
 53              	93              	47              	1000        	50          	100         	0           	Open  	;
 54              	28              	94              	1000        	50          	100         	0           	Open  	;
 55              	94              	33              	1000        	50          	100         	0           	Open  	;
 60              	94              	95              	1000        	50          	100         	0           	Open  	;
 13              	71              	1               	1000        	50          	100         	0           	Open  	;

[PUMPS]
;ID              	Node1           	Node2           	Parameters

[VALVES]
;ID              	Node1           	Node2           	Diameter    	Type	Setting     	MinorLoss

[TAGS]

[DEMANDS]
;Junction        	Demand      	Pattern         	Category

[STATUS]
;ID              	Status/Setting

[PATTERNS]
;ID              	Multipliers
;Sunday 3-4 AM, monday 3-4 AM, ..., saturday 3-4 AM. In total, 7 time window.
 weekly_dawn     	1           	1.5         	1.5         	1.5         	1.5         	1.5
 weekly_dawn     	1

[CURVES]
;ID              	X-Value     	Y-Value

[CONTROLS]




[RULES]




[ENERGY]
 Global Efficiency  	75
 Global Price       	0
 Demand Charge      	0

[EMITTERS]
;Junction        	Coefficient
 1               	0
 2               	0
 3               	0
 4               	0
 5               	0
 6               	0
 7               	0
 8               	0
 9               	0
 10              	0
 11              	0
 12              	0
 13              	0
 14              	0
 15              	0
 16              	0
 17              	0
 18              	0
 19              	0
 20              	0
 21              	0
 22              	0
 23              	0
 24              	0
 25              	0
 26              	0
 27              	0
 28              	0
 29              	0
 30              	0
 31              	0
 32              	0
 33              	0
 34              	0
 35              	0
 36              	0
 37              	0
 38              	0
 39              	0
 40              	0
 41              	0
 42              	0
 43              	0
 44              	0
 45              	0
 46              	0
 47              	0
 48              	0
 49              	0
 50              	0
 51              	0
 52              	0
 53              	0
 54              	0
 55              	0
 56              	0
 57              	0
 58              	0
 59              	0
 60              	0
 61              	0
 62              	0
 63              	0
 64              	0
 65              	0
 66              	0
 67              	0
 68              	0
 69              	0
 70              	0
 73              	0
 74              	0
 75              	0
 76              	0
 77              	0
 78              	0
 79              	0
 80              	0
 81              	0
 82              	0
 83              	0
 84              	0
 85              	0
 86              	0
 87              	0
 88              	0
 89              	0
 90              	0
 91              	0
 92              	0
 93              	0
 94              	0
 95              	0

[QUALITY]
;Node            	InitQual
 71              	1.0

[SOURCES]
;Node            	Type        	Quality     	Pattern

[REACTIONS]
;Type     	Pipe/Tank       	Coefficient


[REACTIONS]
 Order Bulk            	1
 Order Tank            	1
 Order Wall            	1
 Global Bulk           	0
 Global Wall           	0
 Limiting Potential    	0
 Roughness Correlation 	0

[MIXING]
;Tank            	Model

[TIMES]
 Duration           	7:00
 Hydraulic Timestep 	1:00
 Quality Timestep   	0:05
 Pattern Timestep   	1:00
 Pattern Start      	0:00
 Report Timestep    	1:00
 Report Start       	0:00
 Start ClockTime    	03 am
 Statistic          	NONE

[REPORT]
 Status             	No
 Summary            	No
 Page               	0

[OPTIONS]
 Units              	LPS
 Headloss           	H-W
 Specific Gravity   	1
 Viscosity          	1
 Trials             	40
 Accuracy           	0.001
 CHECKFREQ          	2
 MAXCHECK           	10
 DAMPLIMIT          	0
 Unbalanced         	Continue 10
 Pattern            	weekly_dawn
 Demand Multiplier  	1.0
 Emitter Exponent   	0.5
 Quality            	None mg/L
 Diffusivity        	1
 Tolerance          	0.01

[COORDINATES]
;Node            	X-Coord           	Y-Coord
1               	-82.418           	1941.392
2               	979.853           	16941.392
3               	1492.674          	17875.458
4               	1877.289          	17673.993
5               	1108.059          	4926.740
6               	1382.784          	18772.894
7               	-45.788           	17362.637
8               	173.993           	17802.198
9               	906.593           	18772.894
10              	2445.055          	6996.337
11              	2500.000          	6428.571
12              	3763.736          	6465.201
13              	2225.275          	8736.264
14              	-1730.769         	18113.553
15              	-924.908          	19560.440
16              	9.158             	19615.385
17              	6272.894          	6611.722
18              	869.963           	19194.139
19              	6364.469          	5586.081
20              	7884.615          	6684.982
21              	7829.670          	8076.923
22              	-2554.945         	20329.670
23              	7738.095          	9120.879
24              	7701.465          	10256.410
25              	-1712.454         	20677.656
26              	-1712.454         	21465.201
27              	-2554.945         	21465.201
28              	-3397.436         	22985.348
29              	7554.945          	12289.377
30              	-2738.095         	23003.663
31              	7481.685          	13296.703
32              	7390.110          	14487.179
33              	-2994.505         	24688.645
34              	-2994.505         	25256.410
35              	613.553           	24413.919
36              	1675.824          	24432.234
37              	1968.864          	10384.615
38              	2500.000          	25714.286
39              	7408.425          	27399.267
40              	1913.919          	10842.491
41              	943.223           	10842.491
42              	-833.333          	10750.916
43              	7536.630          	24578.755
44              	-1410.256         	9102.564
45              	934.066           	9780.220
46              	3946.886          	13260.073
47              	6456.044          	23956.044
48              	3699.634          	7197.802
49              	3846.154          	7692.308
50              	4468.864          	8406.593
51              	4523.810          	9670.330
52              	3699.634          	10934.066
53              	8846.154          	8699.634
54              	6666.667          	9010.989
55              	6593.407          	10146.520
56              	6501.832          	10970.696
57              	6373.626          	12234.432
58              	4981.685          	13223.443
59              	494.505           	5036.630
60              	4111.722          	8974.359
61              	3360.806          	13168.498
62              	1822.344          	11575.092
63              	4587.912          	14853.480
64              	4441.392          	15421.245
65              	4441.392          	15109.890
66              	2097.070          	14798.535
67              	2884.615          	14450.549
68              	1767.399          	14322.344
69              	1602.564          	14853.480
70              	1529.304          	16666.667
73              	3983.516          	17985.348
74              	3965.201          	18553.114
75              	4148.352          	18956.044
76              	3928.571          	19102.564
77              	3745.421          	18150.183
78              	4642.857          	18736.264
79              	4899.267          	19945.055
80              	4478.022          	20146.520
81              	6382.784          	21043.956
82              	7316.850          	15750.916
83              	7353.480          	16410.256
84              	7573.260          	17087.912
85              	6968.864          	15695.971
86              	6968.864          	16373.626
87              	6895.604          	17161.172
88              	6565.934          	18131.868
89              	9752.747          	17124.542
90              	9789.377          	16648.352
91              	9935.897          	15787.546
92              	10027.473         	14706.960
93              	2573.260          	16062.271
94              	-3495.879         	23825.549
95              	-2268.773         	23825.549
71              	1858.974          	1172.161

[VERTICES]
;Link            	X-Coord           	Y-Coord
62              	-91.575           	2362.637
62              	1043.956          	4468.864
63              	1300.366          	5622.711
63              	1446.886          	6245.421
63              	2161.172          	6666.667
63              	2197.802          	6318.681
64              	3901.099          	7271.062
65              	8864.469          	8131.868
67              	4184.982          	8351.648
68              	4661.172          	9029.304
69              	3782.051          	10512.821
70              	-1419.414         	10274.725
72              	2921.245          	13131.868
76              	5082.418          	14945.055
76              	4679.487          	15256.410
78              	4239.927          	15274.725
80              	2664.835          	14780.220
81              	1401.099          	13608.059
85              	1291.209          	15915.751
86              	2701.465          	16007.326
92              	4111.722          	18736.264
92              	3983.516          	18791.209
95              	4807.692          	19029.304
95              	4459.707          	19157.509
97              	5155.678          	20293.040
97              	6364.469          	20293.040
98              	6932.234          	14523.810
105             	6675.824          	17875.458
105             	6913.919          	17875.458
106             	5485.348          	17893.773
106             	5686.813          	18150.183
112             	10906.593         	6849.817
113             	9569.597          	18260.073
7               	503.663           	17820.513
7               	467.033           	18699.634
21              	-2536.630         	18461.538
22              	-2298.535         	20604.396
29              	-3379.121         	21465.201
35              	613.553           	24780.220
37              	631.868           	21556.777
43              	3470.696          	27307.692
45              	6657.509          	24230.769
45              	6968.864          	24578.755
52              	1712.454          	16923.077
52              	2426.740          	16465.201
52              	3525.641          	18278.388
53              	3672.161          	17930.403
53              	2884.615          	18369.963
53              	6785.714          	23809.524
55              	-3440.934         	24338.370

[LABELS]
;X-Coord             Y-Coord             Label & Anchor Node

[BACKDROP]
  DIMENSIONS  	0.000             	0.000             	10000.000         	10000.000
 UNITS          	None
 FILE
 OFFSET         	0.00            	0.00

[END]
